simulator lang=spectre
include "gpdk090_nmos1v.scs"
include "gpdk090_pmos1v.scs"
